Version 4
SHEET 1 880 680
WIRE 384 16 240 16
WIRE 144 80 64 80
WIRE 240 80 240 16
WIRE 240 80 224 80
WIRE 272 80 240 80
WIRE 288 80 272 80
WIRE 64 96 64 80
WIRE 384 96 384 16
WIRE 384 96 352 96
WIRE 272 112 240 112
WIRE 240 176 240 112
FLAG 64 176 0
FLAG 240 176 0
SYMBOL SpecialFunctions\\ota2 304 32 R0
WINDOW 0 -10 100 Left 2
SYMATTR InstName A1
SYMBOL voltage 64 80 R0
SYMATTR InstName V1
SYMBOL res 240 64 R90
WINDOW 0 0 56 VBottom 2
WINDOW 3 32 56 VTop 2
SYMATTR InstName R1
SYMATTR Value 5k
