Version 4
SHEET 1 880 680
WIRE 160 -64 112 -64
WIRE 240 -64 192 -64
WIRE 160 -32 160 -64
WIRE 192 -32 192 -64
WIRE 384 16 256 16
WIRE 112 80 112 -64
WIRE 112 80 64 80
WIRE 144 80 144 64
WIRE 144 80 112 80
WIRE 208 80 208 64
WIRE 240 80 240 -64
WIRE 240 80 208 80
WIRE 256 80 256 16
WIRE 256 80 240 80
WIRE 288 80 256 80
WIRE 64 96 64 80
WIRE 384 96 384 16
WIRE 384 96 368 96
FLAG 64 176 0
FLAG 352 288 0
FLAG 288 112 0
SYMBOL voltage 64 80 R0
WINDOW 123 24 124 Left 2
WINDOW 39 0 0 Left 0
SYMATTR InstName V1
SYMATTR Value ""
SYMATTR Value2 AC 1
SYMBOL SpecialFunctions\\mota 320 32 R0
WINDOW 3 0 0 Invisible 0
SYMATTR InstName A2
SYMATTR Value Vlow=-1
SYMBOL res 336 112 R0
SYMATTR InstName R1
SYMATTR Value 10
SYMBOL voltage 352 192 R0
WINDOW 3 34 82 Left 2
WINDOW 123 24 124 Left 2
WINDOW 39 0 0 Left 0
SYMATTR InstName V2
SYMATTR Value 200µ
SYMBOL OTAdif 176 -16 R270
SYMATTR InstName X1
SYMATTR SpiceLine G=200u Vlow=-1
TEXT 281 -57 Left 2 !.ac dec 100 10 100k
