Version 4
SHEET 1 880 680
WIRE 144 64 80 64
WIRE 240 64 176 64
WIRE 144 96 144 64
WIRE 176 96 176 64
WIRE 432 144 320 144
WIRE 80 208 80 64
WIRE 80 208 -16 208
WIRE 128 208 128 192
WIRE 128 208 80 208
WIRE 192 208 192 192
WIRE 240 208 240 64
WIRE 240 208 192 208
WIRE 320 208 320 144
WIRE 320 208 240 208
WIRE 352 208 320 208
WIRE -16 224 -16 208
WIRE 432 224 432 144
FLAG 352 240 0
FLAG 416 416 0
FLAG -16 304 0
SYMBOL OTAdif 160 112 R270
SYMATTR InstName X1
SYMATTR SpiceLine G=200u Vlow=-1
SYMBOL Misc\\signal -16 208 R0
WINDOW 0 36 14 Left 2
WINDOW 123 36 38 Left 2
WINDOW 39 0 0 Left 0
SYMATTR InstName V1
SYMATTR Value2 AC 1
SYMATTR Value ""
SYMBOL SpecialFunctions\\mota 384 160 R0
WINDOW 3 0 60 Left 2
SYMATTR InstName A1
SYMATTR Value Vlow=-1
SYMBOL res 400 240 R0
SYMATTR InstName R1
SYMATTR Value 10
SYMBOL voltage 416 320 R0
WINDOW 0 39 55 Left 2
WINDOW 123 0 0 Left 0
WINDOW 39 0 0 Left 0
SYMATTR InstName V2
SYMATTR Value 200µ
TEXT 344 280 Left 1 ;gm2
TEXT 496 280 VRight 2 ;>
TEXT 504 312 Left 0 ;Ib
TEXT -48 440 Left 2 !.ac dec 100 10 100k
LINE Normal 496 304 496 304 2
LINE Normal 496 288 496 336
