Version 4
SHEET 1 880 680
WIRE 192 160 112 160
WIRE 304 176 272 176
WIRE 112 192 112 160
FLAG 192 192 0
FLAG 304 256 0
FLAG 112 272 0
SYMBOL SpecialFunctions\\ota2 224 112 R0
WINDOW 3 -72 -62 Left 2
SYMATTR InstName A1
SYMATTR Value G=10m Vlow=-1
SYMBOL res 288 160 R0
SYMATTR InstName R1
SYMATTR Value 1K
SYMBOL voltage 112 176 R0
WINDOW 123 24 124 Left 2
WINDOW 39 0 0 Left 0
SYMATTR InstName V1
SYMATTR Value ""
SYMATTR Value2 AC 1
TEXT 312 144 Left 2 ;Io=gm*Vin
TEXT 64 96 Left 2 !.ac dec 100 1 100k
